/*--------------------------------*- C++ -*----------------------------------*\
| solids4foam: solid mechanics and fluid-solid interaction simulations        |
| Version:     v2.3                                                           |
| Web:         https://solids4foam.github.io                                  |
| Disclaimer:  This offering is not approved or endorsed by OpenCFD Limited,  |
|              producer and distributor of the OpenFOAM software via          |
|              www.openfoam.com, and owner of the OPENFOAM® and OpenCFD®      |
|              trade marks.                                                   |
\*---------------------------------------------------------------------------*/
FoamFile
{
    version     2.0;
    format      ascii;
    class       dictionary;
    location    "system";
    object      fvSchemes;
}
// * * * * * * * * * * * * * * * * * * * * * * * * * * * * * * * * * * * * * //

ddtSchemes
{
    default         Euler; //backward;
}

gradSchemes
{
    default         Gauss linear;
}

divSchemes
{
    default none;
    div(phi,U) Gauss linearUpwind grad(U);
    div(phi,T) Gauss linearUpwind grad(T);
    div((nuEff*dev2(T(grad(U))))) Gauss linear;
    div((nuEff*dev(T(grad(U))))) Gauss linear;
}

laplacianSchemes
{
    default none;
    laplacian(nuEff,U) Gauss linear corrected;
    laplacian(rAU,p) Gauss linear corrected;
    laplacian((1|A(U)),p) Gauss linear corrected;
    laplacian(diffusivity,cellMotionU) Gauss linear corrected;
    laplacian(lambdaEff,T) Gauss linear corrected;
}

snGradSchemes
{
    default         corrected;
}

interpolationSchemes
{
    default         linear;
}

fluxRequired
{
    default         no;
    p;
}

// ************************************************************************* //
