/*--------------------------------*- C++ -*----------------------------------*\
| solids4foam: solid mechanics and fluid-solid interaction simulations        |
| Version:     v2.3                                                           |
| Web:         https://solids4foam.github.io                                  |
| Disclaimer:  This offering is not approved or endorsed by OpenCFD Limited,  |
|              producer and distributor of the OpenFOAM software via          |
|              www.openfoam.com, and owner of the OPENFOAM® and OpenCFD®      |
|              trade marks.                                                   |
\*---------------------------------------------------------------------------*/
FoamFile
{
    version     2.0;
    format      ascii;
    class       dictionary;
    location    "system";
    object      faSchemes;
}
// * * * * * * * * * * * * * * * * * * * * * * * * * * * * * * * * * * * * * //

ddtSchemes
{
    ddt(w)      Euler;
    ddt(w_0)    Euler;
}

d2dt2Schemes
{}

divSchemes
{}

gradSchemes
{
    default    leastSquares;
}

laplacianSchemes
{
    laplacian(gamma,M) Gauss linear corrected;
    laplacian(((E*pow(plateThickness,3))|(12*(1-pow(nu,2)))),w) Gauss linear corrected;
}

lnGradSchemes
{}

interpolationSchemes
{}

fluxRequired
{}

// ************************************************************************* //
