/*--------------------------------*- C++ -*----------------------------------*\
| solids4foam: solid mechanics and fluid-solid interaction simulations        |
| Version:     v2.3                                                           |
| Web:         https://solids4foam.github.io                                  |
| Disclaimer:  This offering is not approved or endorsed by OpenCFD Limited,  |
|              producer and distributor of the OpenFOAM software via          |
|              www.openfoam.com, and owner of the OPENFOAM® and OpenCFD®      |
|              trade marks.                                                   |
\*---------------------------------------------------------------------------*/
FoamFile
{
    version     2.0;
    format      ascii;
    class       dictionary;
    object      fvSchemes;
}
// * * * * * * * * * * * * * * * * * * * * * * * * * * * * * * * * * * * * * //

d2dt2Schemes
{
    default          none;

    // Vertex-centred schemes
    // d2dt2(pointD)    steadyState;
    // d2dt2(pointD)    Euler;
    // d2dt2(pointD)    backward;
    // Newmark-beta with beta and gamma parameters
    // beta = 0.25, gamma = 0.5 for 2nd order with no dissipation
    // For unconditional stability, beta >= gamma/2 >= 0.25
    d2dt2(pointD)    NewmarkBeta 0.25 0.5;
    d2dt2(pointU)    NewmarkBeta 0.25 0.5;

    // Cell-centred schemes
    // d2dt2(D)         steadyState;
    // d2dt2(D)         Euler;
    d2dt2(D)         backward;
}

ddtSchemes
{
    default          none;

    // Vertex-centred schemes
    ddt(pointD)      NewmarkBeta 0.25 0.5;
    ddt(pointU)      NewmarkBeta 0.25 0.5;

    // Cell-centred schemes
    // ddt(D)           steadyState;
    // ddt(D)           Euler;
    ddt(D)           backward;
    d2dt2(D_0)       backward;
    d2dt2(D)         backward;

    // Explicit schemes
    ddt(epsilonVol)  Euler;
}

gradSchemes
{
    default          none;
    grad(D)          leastSquaresS4f;
}

divSchemes
{
    default          Gauss linear;
}

laplacianSchemes
{
    default          Gauss linear corrected;
}

snGradSchemes
{
    default          corrected;
}

interpolationSchemes
{
    default          linear;
}

// ************************************************************************* //
