/*--------------------------------*- C++ -*----------------------------------*\
| solids4foam: solid mechanics and fluid-solid interaction simulations        |
| Version:     v2.3                                                           |
| Web:         https://solids4foam.github.io                                  |
| Disclaimer:  This offering is not approved or endorsed by OpenCFD Limited,  |
|              producer and distributor of the OpenFOAM software via          |
|              www.openfoam.com, and owner of the OPENFOAM® and OpenCFD®      |
|              trade marks.                                                   |
\*---------------------------------------------------------------------------*/
FoamFile
{
    version     2.0;
    format      ascii;
    class       dictionary;
    location    "constant";
    object      solidProperties;
}
// * * * * * * * * * * * * * * * * * * * * * * * * * * * * * * * * * * * * * //

//solidModel     linearGeometryTotalDisplacement;
solidModel     nonLinearGeometryTotalLagrangianTotalDisplacement;

"linearGeometryTotalDisplacementCoeffs|nonLinearGeometryTotalLagrangianTotalDisplacementCoeffs"
{
    // Solution algorithm
    solutionAlgorithm PETScSNES;

    // Predictor D at the start of a new time step using U and A
    predictor yes;

    // Stabilisation
    stabilisation
    {
        scaleFactor 0.5;
    }
}

// ************************************************************************* //
