/*--------------------------------*- C++ -*----------------------------------*\
| solids4foam: solid mechanics and fluid-solid interaction simulations        |
| Version:     v2.3                                                           |
| Web:         https://solids4foam.github.io                                  |
| Disclaimer:  This offering is not approved or endorsed by OpenCFD Limited,  |
|              producer and distributor of the OpenFOAM software via          |
|              www.openfoam.com, and owner of the OPENFOAM® and OpenCFD®      |
|              trade marks.                                                   |
\*---------------------------------------------------------------------------*/
FoamFile
{
    version     2.0;
    format      ascii;
    class       dictionary;
    location    "constant";
    object      transportProperties;
}
// * * * * * * * * * * * * * * * * * * * * * * * * * * * * * * * * * * * * * //

nu              nu [0 2 -1 0 0 0 0] 2e-4;
rho             rho [1 -3 0 0 0 0 0] 1;

// For piso/transientSimple
transportModel  Newtonian;

// Thermal properties
TRef            TRef [0 0 0 1 0 0 0] 303.0;

Cp              Cp [0 2 -2 -1 0 0 0] 250;

beta            beta [0 0 0 -1 0 0 0] 0; // forced convection

Prt             Prt [0 0 0 0 0 0 0] 0.85;

lambda          lambda [1 1 -3 -1 0 0 0] 5;

// ************************************************************************* //
